opendss/geracao_distribuida.dss
new PVSystem.GD_UGBT_63ec157e012c3d71b24001fdf66a752696e6168829b9dc3446428f000b75ca8b phases=3 bus1=80501785271617.1.2.3.0 kv=0.38 conn=wye pmpp=0.55 kva=0.55 pf=1.0 irradiance=1.0 daily=Curva_Solar_Abril %cutin=0.1 %cutout=0.1
new PVSystem.GD_UGBT_7e6aba46c6de8c47687eb963eb2509c7839ec18b709d527316a17985d026172d phases=3 bus1=82357455289691.1.2.3.0 kv=0.38 conn=wye pmpp=0.46 kva=0.46 pf=1.0 irradiance=1.0 daily=Curva_Solar_Abril %cutin=0.1 %cutout=0.1
new PVSystem.GD_UGBT_215a1a8a1b1a9f6d95ca175e9061386e2752ea167a8344b30a5006423ce1e7d0 phases=1 bus1=82577935291645.1.0 kv=0.22 conn=wye pmpp=4.50 kva=4.50 pf=1.0 irradiance=1.0 daily=Curva_Solar_Abril %cutin=0.1 %cutout=0.1
new PVSystem.GD_UGBT_b98995d8e5d98558fdaeae264c181ca2ff6aea86b91152dc505ff3ca0348a03e phases=1 bus1=82307805289328.3.0 kv=0.22 conn=wye pmpp=5.00 kva=5.00 pf=1.0 irradiance=1.0 daily=Curva_Solar_Abril %cutin=0.1 %cutout=0.1
new PVSystem.GD_UGBT_3ce845d1df471cb8e24415d9cc8cf200359a9b507069cf2e6b939802ae404659 phases=1 bus1=80450015270879.1.0 kv=0.22 conn=wye pmpp=3.00 kva=3.00 pf=1.0 irradiance=1.0 daily=Curva_Solar_Abril %cutin=0.1 %cutout=0.1
new PVSystem.GD_UGBT_d3164ea4b33438475101a61ba1b0b664bb31613e64c059defb3d4bee0260c22f phases=3 bus1=80508905271643.1.2.3.0 kv=0.38 conn=wye pmpp=5.00 kva=5.00 pf=1.0 irradiance=1.0 daily=Curva_Solar_Abril %cutin=0.1 %cutout=0.1
new PVSystem.GD_UGBT_979a7e46ee86d7558f1bee57277278a736c81970b706f2a4139493f1b554eab6 phases=3 bus1=87374955458987.1.2.3.0 kv=0.38 conn=wye pmpp=12.00 kva=12.00 pf=1.0 irradiance=1.0 daily=Curva_Solar_Abril %cutin=0.1 %cutout=0.1
new PVSystem.GD_UGBT_eb9327e2d8b489358d068f776f7488bff1230e08e52f124be08866f05556014d phases=3 bus1=83107145307863-365.1.2.3.0 kv=0.38 conn=wye pmpp=18.70 kva=18.70 pf=1.0 irradiance=1.0 daily=Curva_Solar_Abril %cutin=0.1 %cutout=0.1
new PVSystem.GD_UGBT_d53f7ed0d9fc2f22289527d64f98445aec59a586ca6fc2bcab19f651459ba505 phases=3 bus1=88596615523228.1.2.3.0 kv=0.38 conn=wye pmpp=8.50 kva=8.50 pf=1.0 irradiance=1.0 daily=Curva_Solar_Abril %cutin=0.1 %cutout=0.1
new PVSystem.GD_UGBT_679677b5589e92ee58c9dca4745deb559193879f8bebd8f07131b5749d0f3708 phases=3 bus1=83078205457045.1.2.3.0 kv=0.38 conn=wye pmpp=8.20 kva=8.20 pf=1.0 irradiance=1.0 daily=Curva_Solar_Abril %cutin=0.1 %cutout=0.1
new PVSystem.GD_UGBT_9e62445165f59ca6e0512ae808544afe9a67b290890e60ed0fadada81c194dab phases=3 bus1=80516465271675.1.2.3.0 kv=0.38 conn=wye pmpp=10.00 kva=10.00 pf=1.0 irradiance=1.0 daily=Curva_Solar_Abril %cutin=0.1 %cutout=0.1
new PVSystem.GD_UGBT_7d0e7474c16445c0e461df9a3cf4f3d5df2cf895f9882f5ef1c3229ac08930da phases=3 bus1=82293825289308.1.2.3.0 kv=0.38 conn=wye pmpp=44.00 kva=44.00 pf=1.0 irradiance=1.0 daily=Curva_Solar_Abril %cutin=0.1 %cutout=0.1
new PVSystem.GD_UGBT_e7954f9dcd9d815a789b22ee0e57c98b65d1b519ce2045f9f118d101ab6cc6e5 phases=3 bus1=83546475307894.1.2.3.0 kv=0.38 conn=wye pmpp=6.00 kva=6.00 pf=1.0 irradiance=1.0 daily=Curva_Solar_Abril %cutin=0.1 %cutout=0.1
new PVSystem.GD_UGBT_bfc670db5a74174bc03b4a6ea0e1aac4b5c2bb6c6b5e02a69bd0a0f01253fa5b phases=3 bus1=82358985289699.1.2.3.0 kv=0.38 conn=wye pmpp=8.00 kva=8.00 pf=1.0 irradiance=1.0 daily=Curva_Solar_Abril %cutin=0.1 %cutout=0.1
new PVSystem.GD_UGBT_e1e051eed08119bc953a11675db1d976cdadf8089efa287baae2d46cb39bc3d6 phases=2 bus1=80498115271471.1.2.0 kv=0.38 conn=wye pmpp=3.33 kva=3.33 pf=1.0 irradiance=1.0 daily=Curva_Solar_Abril %cutin=0.1 %cutout=0.1
new PVSystem.GD_UGBT_1a9cb3458b2bf5a2b661bb1aab3482f18721effbb916ce8baf5cc53bb3e7f648 phases=3 bus1=94233725620954.1.2.3.0 kv=0.38 conn=wye pmpp=3.60 kva=3.60 pf=1.0 irradiance=1.0 daily=Curva_Solar_Abril %cutin=0.1 %cutout=0.1
new PVSystem.GD_UGBT_14740d980c2cd48a5cf2cfa0c1c7ba5d48886b5467cb004e214b11fd40872b64 phases=1 bus1=82369115289769.2.0 kv=0.22 conn=wye pmpp=2.00 kva=2.00 pf=1.0 irradiance=1.0 daily=Curva_Solar_Abril %cutin=0.1 %cutout=0.1
new PVSystem.GD_UGBT_17dcd2c0c705d6de26b132799e1c0f6ec12fef7e33432f27186c73e87337d093 phases=3 bus1=89249955522592.1.2.3.0 kv=0.38 conn=wye pmpp=20.00 kva=20.00 pf=1.0 irradiance=1.0 daily=Curva_Solar_Abril %cutin=0.1 %cutout=0.1
new PVSystem.GD_UGBT_4c091e51b53e774f9889c390174efc51087d01d6462f81adb6e65b3c0eca0515 phases=1 bus1=83546455307894.1.0 kv=0.22 conn=wye pmpp=4.50 kva=4.50 pf=1.0 irradiance=1.0 daily=Curva_Solar_Abril %cutin=0.1 %cutout=0.1
new PVSystem.GD_UGBT_4ef46d78fc5771ed340cce6f0cb8f49fc35c12fa6c6562703c03890a6f12ba84 phases=1 bus1=82209455288280.1.0 kv=0.22 conn=wye pmpp=2.95 kva=2.95 pf=1.0 irradiance=1.0 daily=Curva_Solar_Abril %cutin=0.1 %cutout=0.1
new PVSystem.GD_UGBT_5a4789960e3de1ae310f4fa92b2680590885b0d71ac93784e2fc1a814501fef6 phases=3 bus1=82326845289581.1.2.3.0 kv=0.38 conn=wye pmpp=5.00 kva=5.00 pf=1.0 irradiance=1.0 daily=Curva_Solar_Abril %cutin=0.1 %cutout=0.1
new PVSystem.GD_UGBT_82144b30e5905fc085001e1301878c8bdba2cbe62301bb27f02723a14b099577 phases=1 bus1=82341085289528.2.0 kv=0.22 conn=wye pmpp=3.30 kva=3.30 pf=1.0 irradiance=1.0 daily=Curva_Solar_Abril %cutin=0.1 %cutout=0.1
new PVSystem.GD_UGBT_83c1e96759c55f9360dc4c2d2516460aeac5bf83b08d4289d7395a9235c3fb88 phases=3 bus1=87376325459664.1.2.3.0 kv=0.38 conn=wye pmpp=9.90 kva=9.90 pf=1.0 irradiance=1.0 daily=Curva_Solar_Abril %cutin=0.1 %cutout=0.1
new PVSystem.GD_UGBT_5e3acdb285fb7d94ce5eb5bd2d223461aa355de3aac389e7ace89b790fc8298f phases=1 bus1=82312745289279.1.0 kv=0.22 conn=wye pmpp=5.55 kva=5.55 pf=1.0 irradiance=1.0 daily=Curva_Solar_Abril %cutin=0.1 %cutout=0.1
new PVSystem.GD_UGBT_a84a6133a81bfff419fbc74655db75173364a0e688328311dbb50aad2def0c3a phases=3 bus1=83110295307993-372.1.2.3.0 kv=0.38 conn=wye pmpp=14.00 kva=14.00 pf=1.0 irradiance=1.0 daily=Curva_Solar_Abril %cutin=0.1 %cutout=0.1
new PVSystem.GD_UGBT_f705e086a369ac5c5f554d06d93fa05fe521bcb07a3e24f7f3ab7507e012e74d phases=1 bus1=82312785289280.1.0 kv=0.22 conn=wye pmpp=3.00 kva=3.00 pf=1.0 irradiance=1.0 daily=Curva_Solar_Abril %cutin=0.1 %cutout=0.1
new PVSystem.GD_UGBT_db8d8d65c0da0a56175bfaf2db587ac2f874a88f10d3766c0b51f5a1b50fcfac phases=3 bus1=83082885307948.1.2.3.0 kv=0.38 conn=wye pmpp=5.40 kva=5.40 pf=1.0 irradiance=1.0 daily=Curva_Solar_Abril %cutin=0.1 %cutout=0.1
new PVSystem.GD_UGBT_aa05be6a6cb0f3578f1ebcb2f28472e7abde87d3553835b5f181b2f914f3661f phases=3 bus1=83110295307993-372.1.2.3.0 kv=0.38 conn=wye pmpp=16.50 kva=16.50 pf=1.0 irradiance=1.0 daily=Curva_Solar_Abril %cutin=0.1 %cutout=0.1
new PVSystem.GD_UGBT_82a7caf5b7688964de423dd742e61386236942a7306673a0451484af8682a7de phases=3 bus1=87428715459372-429.1.2.3.0 kv=0.38 conn=wye pmpp=8.00 kva=8.00 pf=1.0 irradiance=1.0 daily=Curva_Solar_Abril %cutin=0.1 %cutout=0.1
new PVSystem.GD_UGBT_d349b7cda9f8cff520086d6f52f3c16bd0d429f6bd20f65cfbf751df137babd6 phases=1 bus1=82370925740301.1.0 kv=0.22 conn=wye pmpp=7.50 kva=7.50 pf=1.0 irradiance=1.0 daily=Curva_Solar_Abril %cutin=0.1 %cutout=0.1
new PVSystem.GD_UGBT_d1c7748ebd0c4b5e75556d049b93f8284188f46bdc3ffceb500ae6bd0d7cf8f8 phases=3 bus1=81766045284521.1.2.3.0 kv=0.38 conn=wye pmpp=3.00 kva=3.00 pf=1.0 irradiance=1.0 daily=Curva_Solar_Abril %cutin=0.1 %cutout=0.1
new PVSystem.GD_UGBT_928b6eca810a3b7979ab32266a34475403025257c1cddece210e9ba2fb8b68c8 phases=3 bus1=87149355450465.1.2.3.0 kv=0.38 conn=wye pmpp=4.20 kva=4.20 pf=1.0 irradiance=1.0 daily=Curva_Solar_Abril %cutin=0.1 %cutout=0.1
new PVSystem.GD_UGBT_cba14a5bb9b6377d5892164e422e5656fb9907e7c80c7338c3082fecaade000f phases=3 bus1=83118595612426-776.1.2.3.0 kv=0.38 conn=wye pmpp=10.00 kva=10.00 pf=1.0 irradiance=1.0 daily=Curva_Solar_Abril %cutin=0.1 %cutout=0.1
new PVSystem.GD_UGBT_7e99569ac413323e7a3be94f555db04eda3f41f3b03dfa9b684bb5a5d46a7d2d phases=3 bus1=87422605459149-428.1.2.3.0 kv=0.38 conn=wye pmpp=6.00 kva=6.00 pf=1.0 irradiance=1.0 daily=Curva_Solar_Abril %cutin=0.1 %cutout=0.1
new PVSystem.GD_UGBT_c45d95d2186d4aaec5ba5211dfa431445e41207e94a6598b2f9d75acdbfa2ded phases=3 bus1=80517165271667.1.2.3.0 kv=0.38 conn=wye pmpp=4.95 kva=4.95 pf=1.0 irradiance=1.0 daily=Curva_Solar_Abril %cutin=0.1 %cutout=0.1
new PVSystem.GD_UGBT_02818eba480db6630e81dd0e9a7bac3a153421664eca23760851b674b6ee9baf phases=3 bus1=80450715270878.1.2.3.0 kv=0.38 conn=wye pmpp=12.73 kva=12.73 pf=1.0 irradiance=1.0 daily=Curva_Solar_Abril %cutin=0.1 %cutout=0.1
new PVSystem.GD_UGBT_d5e9a5bf3402193ace8daee5a4ef9f48a934669acb4a186dfba6da1b6d99a0b4 phases=3 bus1=87376705459303.1.2.3.0 kv=0.38 conn=wye pmpp=3.20 kva=3.20 pf=1.0 irradiance=1.0 daily=Curva_Solar_Abril %cutin=0.1 %cutout=0.1
new PVSystem.GD_UGBT_8b2be244e42d6818dc7f8bec6fb85915bd288b25b55c5397fd1fce4e81a4c8bf phases=1 bus1=82205335340235.1.0 kv=0.22 conn=wye pmpp=3.00 kva=3.00 pf=1.0 irradiance=1.0 daily=Curva_Solar_Abril %cutin=0.1 %cutout=0.1
new PVSystem.GD_UGBT_fc3f09a44d713114504e4b940bed22dcdb70377b7a515e92fbb16bd896b12ace phases=3 bus1=87428715459372-429.1.2.3.0 kv=0.38 conn=wye pmpp=3.00 kva=3.00 pf=1.0 irradiance=1.0 daily=Curva_Solar_Abril %cutin=0.1 %cutout=0.1
new PVSystem.GD_UGBT_9eb4f5e62e07d3ad2ccbbcc8d6fc92ebd3ce65b24c40e9ad027b7cd887cd6734 phases=3 bus1=83546185307893.1.2.3.0 kv=0.38 conn=wye pmpp=3.00 kva=3.00 pf=1.0 irradiance=1.0 daily=Curva_Solar_Abril %cutin=0.1 %cutout=0.1
new PVSystem.GD_UGBT_9f2a20e8572129d9b900a99a9c111dfb41eb9fc7d87e80b1347772b43268b0d4 phases=3 bus1=87428715459372-429.1.2.3.0 kv=0.38 conn=wye pmpp=8.00 kva=8.00 pf=1.0 irradiance=1.0 daily=Curva_Solar_Abril %cutin=0.1 %cutout=0.1
new PVSystem.GD_UGBT_bcc5a348b33a75d615bd88fa92e5999e619e0d3b8f5a35945d9d375d7b4eeafa phases=3 bus1=80518025271680.1.2.3.0 kv=0.38 conn=wye pmpp=4.62 kva=4.62 pf=1.0 irradiance=1.0 daily=Curva_Solar_Abril %cutin=0.1 %cutout=0.1
new PVSystem.GD_UGBT_0b021ecf82d9f1cddf509327256e66844126b7654d2abcc13e1ad3f68151f220 phases=1 bus1=82226025288284.2.0 kv=0.22 conn=wye pmpp=1.90 kva=1.90 pf=1.0 irradiance=1.0 daily=Curva_Solar_Abril %cutin=0.1 %cutout=0.1
new PVSystem.GD_UGBT_834225957c21d2d70b07d116a495c4ef878aa288dc2323505171e87e59c60982 phases=1 bus1=82328935289487.1.0 kv=0.22 conn=wye pmpp=3.60 kva=3.60 pf=1.0 irradiance=1.0 daily=Curva_Solar_Abril %cutin=0.1 %cutout=0.1
new PVSystem.GD_UGBT_45557216d50fb34c57fbd980d03e77c3021692131ce4a7c01f9e7fbcaa019b4c phases=1 bus1=80507525271625.2.0 kv=0.22 conn=wye pmpp=6.60 kva=6.60 pf=1.0 irradiance=1.0 daily=Curva_Solar_Abril %cutin=0.1 %cutout=0.1
new PVSystem.GD_UGBT_f1730a2518fdd927d2e074b52445ef858c888138fea820c6659c9719b166a53f phases=3 bus1=82212035288259.1.2.3.0 kv=0.38 conn=wye pmpp=5.00 kva=5.00 pf=1.0 irradiance=1.0 daily=Curva_Solar_Abril %cutin=0.1 %cutout=0.1
new PVSystem.GD_UGBT_1a9e69b52911bd0f271d71a59ea9695604218488d905eff4db9c3d0ab9f9b671 phases=3 bus1=80465995270958.1.2.3.0 kv=0.38 conn=wye pmpp=33.00 kva=33.00 pf=1.0 irradiance=1.0 daily=Curva_Solar_Abril %cutin=0.1 %cutout=0.1
new PVSystem.GD_UGBT_17a9749512473d144aa60a5f21450ed16703b08fb5d3ccc6d73b95181c92a285 phases=1 bus1=82585735291684.3.0 kv=0.22 conn=wye pmpp=2.00 kva=2.00 pf=1.0 irradiance=1.0 daily=Curva_Solar_Abril %cutin=0.1 %cutout=0.1
new PVSystem.GD_UGBT_3d8232ef5bda63b5c30f49a3bf1dc5261f76d038d71221504a76635ddc2e123e phases=3 bus1=80495605271466.1.2.3.0 kv=0.38 conn=wye pmpp=40.00 kva=40.00 pf=1.0 irradiance=1.0 daily=Curva_Solar_Abril %cutin=0.1 %cutout=0.1
new PVSystem.GD_UGBT_a267ce8c9389860fe8713e48caba5c82234acfbef8ca2ae267302d1b84be635c phases=3 bus1=80509865271646.1.2.3.0 kv=0.38 conn=wye pmpp=3.00 kva=3.00 pf=1.0 irradiance=1.0 daily=Curva_Solar_Abril %cutin=0.1 %cutout=0.1
new PVSystem.GD_UGBT_ae877a30c7fc01f58fe895eb67ad51e2c9b35fb4c19b415a5d8d2df6e33641e0 phases=3 bus1=83110295307993-372.1.2.3.0 kv=0.38 conn=wye pmpp=4.56 kva=4.56 pf=1.0 irradiance=1.0 daily=Curva_Solar_Abril %cutin=0.1 %cutout=0.1
new PVSystem.GD_UGBT_9aad02d291d609f270a35d06f8c475327cbc11bfa99d25f70ea4bed3c10c05a3 phases=3 bus1=83067525307979-370.1.2.3.0 kv=0.38 conn=wye pmpp=6.00 kva=6.00 pf=1.0 irradiance=1.0 daily=Curva_Solar_Abril %cutin=0.1 %cutout=0.1
new PVSystem.GD_UGBT_910d730c682d4e06bc8214afd98bf8a9bd749904e333d4cbf21b34e3129061b9 phases=3 bus1=83149735612289-774.1.2.3.0 kv=0.38 conn=wye pmpp=6.00 kva=6.00 pf=1.0 irradiance=1.0 daily=Curva_Solar_Abril %cutin=0.1 %cutout=0.1
new PVSystem.GD_UGBT_75d573bba408c87ebb8a73e28b8f863af08721006f809a3ec89eac75d68a0578 phases=3 bus1=89249355522590.1.2.3.0 kv=0.38 conn=wye pmpp=8.40 kva=8.40 pf=1.0 irradiance=1.0 daily=Curva_Solar_Abril %cutin=0.1 %cutout=0.1
new PVSystem.GD_UGBT_f29c4b04446b610be2863f3c9df6f13e23363b1d4b7f92e77e19f30131917a95 phases=3 bus1=83111225612433-777.1.2.3.0 kv=0.38 conn=wye pmpp=25.00 kva=25.00 pf=1.0 irradiance=1.0 daily=Curva_Solar_Abril %cutin=0.1 %cutout=0.1
new PVSystem.GD_UGBT_613a96ca3de0768add73f5f86921b4d33fc0415baf3d319bfced40d0331c4ccb phases=3 bus1=83108055307990.1.2.3.0 kv=0.38 conn=wye pmpp=16.00 kva=16.00 pf=1.0 irradiance=1.0 daily=Curva_Solar_Abril %cutin=0.1 %cutout=0.1
new PVSystem.GD_UGBT_c4de0b32f9fa0a5d9a0f141d48ff473c3314fb98edbd28546020cbc7a3eb181e phases=3 bus1=88596575502053.1.2.3.0 kv=0.38 conn=wye pmpp=8.50 kva=8.50 pf=1.0 irradiance=1.0 daily=Curva_Solar_Abril %cutin=0.1 %cutout=0.1
new PVSystem.GD_UGBT_e21fecd52e193b793928a376a65279d686eec6db5fd098e69c36bd0b4020db19 phases=3 bus1=87432275460386-430.1.2.3.0 kv=0.38 conn=wye pmpp=10.00 kva=10.00 pf=1.0 irradiance=1.0 daily=Curva_Solar_Abril %cutin=0.1 %cutout=0.1
new PVSystem.GD_UGBT_6fe7113b7756d44a341471a923e3eb50d87f8a2bed524f65839e7c907cf3518d phases=3 bus1=88596615523228.1.2.3.0 kv=0.38 conn=wye pmpp=8.00 kva=8.00 pf=1.0 irradiance=1.0 daily=Curva_Solar_Abril %cutin=0.1 %cutout=0.1
new PVSystem.GD_UGBT_0f0763449aa02d596e2c304f6e9ad51bddbaf89c76810ae5ca88bcba8d2bfc17 phases=1 bus1=82209525288280.1.0 kv=0.22 conn=wye pmpp=4.40 kva=4.40 pf=1.0 irradiance=1.0 daily=Curva_Solar_Abril %cutin=0.1 %cutout=0.1
new PVSystem.GD_UGBT_a40dabae2f167f0362bd897d653d71f572c6a381510bdbd43068ab85a7a721e2 phases=3 bus1=80541105272252.1.2.3.0 kv=0.38 conn=wye pmpp=42.88 kva=42.88 pf=1.0 irradiance=1.0 daily=Curva_Solar_Abril %cutin=0.1 %cutout=0.1
new PVSystem.GD_UGBT_b6c167f591173a3409efca5417d15b38b79600862ceb317e8ec7635c86872455 phases=3 bus1=83547185316163.1.2.3.0 kv=0.38 conn=wye pmpp=50.00 kva=50.00 pf=1.0 irradiance=1.0 daily=Curva_Solar_Abril %cutin=0.1 %cutout=0.1
new PVSystem.GD_UGBT_8a223a97e84105419da6184a604164762cdda02914684025ce9c24bd7a7b1d57 phases=1 bus1=82288345289237.1.0 kv=0.22 conn=wye pmpp=12.00 kva=12.00 pf=1.0 irradiance=1.0 daily=Curva_Solar_Abril %cutin=0.1 %cutout=0.1
new PVSystem.GD_UGBT_585fc8cfaa182e0881ad8f1de8f5c624d85202d3fb41cc83b6460bef2e8e598a phases=1 bus1=82338385289509.1.0 kv=0.22 conn=wye pmpp=5.00 kva=5.00 pf=1.0 irradiance=1.0 daily=Curva_Solar_Abril %cutin=0.1 %cutout=0.1
new PVSystem.GD_UGBT_f701bede0ef9d0e9942ac8726bd78bb38408dfeb0ebf5844bcb79ae34999341b phases=3 bus1=82338215289508.1.2.3.0 kv=0.38 conn=wye pmpp=5.00 kva=5.00 pf=1.0 irradiance=1.0 daily=Curva_Solar_Abril %cutin=0.1 %cutout=0.1
new PVSystem.GD_UGBT_758e3c2ac2ce4aa025c576b1ea40bcd48ef7fa179fad3f9193889592a0dac138 phases=3 bus1=87432275460386-430.1.2.3.0 kv=0.38 conn=wye pmpp=5.00 kva=5.00 pf=1.0 irradiance=1.0 daily=Curva_Solar_Abril %cutin=0.1 %cutout=0.1
new PVSystem.GD_UGBT_6799369b63953f567bec5c0a0d930177b0be6cd5b81e22513538816d2343027b phases=2 bus1=88754055506847.1.2.0 kv=0.38 conn=wye pmpp=2.00 kva=2.00 pf=1.0 irradiance=1.0 daily=Curva_Solar_Abril %cutin=0.1 %cutout=0.1
new PVSystem.GD_UGBT_40bdb346ee16248009490b0c04071e26cf1622028a661e2425e6064100814776 phases=3 bus1=88596575502053.1.2.3.0 kv=0.38 conn=wye pmpp=8.20 kva=8.20 pf=1.0 irradiance=1.0 daily=Curva_Solar_Abril %cutin=0.1 %cutout=0.1
new PVSystem.GD_UGBT_c862f55e4b46f00d4d743faae59e4e9e4fec24e28e50345677c8a717cbf446ad phases=3 bus1=80513835271676.1.2.3.0 kv=0.38 conn=wye pmpp=4.00 kva=4.00 pf=1.0 irradiance=1.0 daily=Curva_Solar_Abril %cutin=0.1 %cutout=0.1
new PVSystem.GD_UGBT_c0d2dfe3cc233665685b7f4aa5d1db309cfb7eea9738ff85f364d0ea134af318 phases=3 bus1=89979435545964.1.2.3.0 kv=0.38 conn=wye pmpp=50.00 kva=50.00 pf=1.0 irradiance=1.0 daily=Curva_Solar_Abril %cutin=0.1 %cutout=0.1
new PVSystem.GD_UGBT_ed13acee827ce91d79ef1949d8ea01d9a26739a4acb6e3f10a6f2951e1813e63 phases=3 bus1=80552375640930.1.2.3.0 kv=0.38 conn=wye pmpp=8.00 kva=8.00 pf=1.0 irradiance=1.0 daily=Curva_Solar_Abril %cutin=0.1 %cutout=0.1
new PVSystem.GD_UGBT_c098ffc7cdb9aec7eabbaea0be7f002a082c1b07698a6d7cb5e974439514127c phases=3 bus1=87459785460540-431.1.2.3.0 kv=0.38 conn=wye pmpp=4.00 kva=4.00 pf=1.0 irradiance=1.0 daily=Curva_Solar_Abril %cutin=0.1 %cutout=0.1
new PVSystem.GD_UGBT_d5ce0824d875c363c9f4feaab18f4e9338f79320c38ebd601ce525664be6527c phases=3 bus1=80518455271679.1.2.3.0 kv=0.38 conn=wye pmpp=7.50 kva=7.50 pf=1.0 irradiance=1.0 daily=Curva_Solar_Abril %cutin=0.1 %cutout=0.1
new PVSystem.GD_UGBT_a8ff968b67db07eb76811828c5322e1b845eebcbd0f3e4e87ca0f2e9d2ba35e1 phases=3 bus1=96832695756020.1.2.3.0 kv=0.38 conn=wye pmpp=9.60 kva=9.60 pf=1.0 irradiance=1.0 daily=Curva_Solar_Abril %cutin=0.1 %cutout=0.1
new PVSystem.GD_UGBT_b3e39e5bcbbc310ff7dd151a4676adee21c0a77c6c524c2b4e7f87c0bf149131 phases=3 bus1=83066805307982-371.1.2.3.0 kv=0.38 conn=wye pmpp=18.00 kva=18.00 pf=1.0 irradiance=1.0 daily=Curva_Solar_Abril %cutin=0.1 %cutout=0.1
new PVSystem.GD_UGBT_8a610147687d021c6d8e6aba26ea13494ff9d954a1ff61a987849d9d25e1ce5d phases=3 bus1=80518755271675.1.2.3.0 kv=0.38 conn=wye pmpp=2.00 kva=2.00 pf=1.0 irradiance=1.0 daily=Curva_Solar_Abril %cutin=0.1 %cutout=0.1
new PVSystem.GD_UGBT_7a495189dd1db1df0214ac733884df76fb39374b681c8645d64546bf4b2c4969 phases=3 bus1=89258785522588.1.2.3.0 kv=0.38 conn=wye pmpp=10.00 kva=10.00 pf=1.0 irradiance=1.0 daily=Curva_Solar_Abril %cutin=0.1 %cutout=0.1
new PVSystem.GD_UGBT_570bc4bc6c021ae51ded5bd7ef82cd9481c10a203c32938c8180e4a24e4e7a09 phases=3 bus1=82575315291648.1.2.3.0 kv=0.38 conn=wye pmpp=10.50 kva=10.50 pf=1.0 irradiance=1.0 daily=Curva_Solar_Abril %cutin=0.1 %cutout=0.1
new PVSystem.GD_UGBT_7447762afd39598d92920e9cc0e90bf41d401b65080daade85574b8322287e52 phases=3 bus1=87422605459149-428.1.2.3.0 kv=0.38 conn=wye pmpp=4.00 kva=4.00 pf=1.0 irradiance=1.0 daily=Curva_Solar_Abril %cutin=0.1 %cutout=0.1
new PVSystem.GD_UGBT_da9e138ff7e3f73396e584b92e817380ee46ca7bdfb94d717176f3604ebfd5f9 phases=1 bus1=82190225288057.1.0 kv=0.22 conn=wye pmpp=3.00 kva=3.00 pf=1.0 irradiance=1.0 daily=Curva_Solar_Abril %cutin=0.1 %cutout=0.1
new PVSystem.GD_UGBT_ec559719e38d49637a0c661c0fb7a4816ac4dc89f076211f43651de3d9e27345 phases=1 bus1=82208135288270.1.0 kv=0.22 conn=wye pmpp=2.87 kva=2.87 pf=1.0 irradiance=1.0 daily=Curva_Solar_Abril %cutin=0.1 %cutout=0.1
new PVSystem.GD_UGBT_3fbaecfb9eee8898df520a7e4980c1b8c837e00ef079654a3fe839912172abd1 phases=3 bus1=80531495271992.1.2.3.0 kv=0.38 conn=wye pmpp=7.00 kva=7.00 pf=1.0 irradiance=1.0 daily=Curva_Solar_Abril %cutin=0.1 %cutout=0.1
new PVSystem.GD_UGBT_fac1e71a50a1ef81c256bb8caedf5c7cdaa83b3f52ab1474e1ac838f0048b8e9 phases=3 bus1=83111225612433-777.1.2.3.0 kv=0.38 conn=wye pmpp=11.30 kva=11.30 pf=1.0 irradiance=1.0 daily=Curva_Solar_Abril %cutin=0.1 %cutout=0.1
new PVSystem.GD_UGBT_1cb7ffe5aa5b2cbcc47ca5820e04caa4ee5478612c5e43b478bccae182d77223 phases=1 bus1=82285675289264.2.0 kv=0.22 conn=wye pmpp=3.00 kva=3.00 pf=1.0 irradiance=1.0 daily=Curva_Solar_Abril %cutin=0.1 %cutout=0.1
new PVSystem.GD_UGBT_179f5f51d16dda87e1530327c9f5444476c31a90d8942ae72c1bc7ee383355f3 phases=3 bus1=80518205271681.1.2.3.0 kv=0.38 conn=wye pmpp=3.00 kva=3.00 pf=1.0 irradiance=1.0 daily=Curva_Solar_Abril %cutin=0.1 %cutout=0.1
new PVSystem.GD_UGBT_a7eb096b54fa50fc56a3a5b2ee37e8a597d4b3730fa54765e4387f676ff5a0e8 phases=2 bus1=89102925517707.1.2.0 kv=0.38 conn=wye pmpp=4.00 kva=4.00 pf=1.0 irradiance=1.0 daily=Curva_Solar_Abril %cutin=0.1 %cutout=0.1
new PVSystem.GD_UGBT_62a9a4cab9e68dcadf1fc2db4123dfaa2abb5193eac83f31de3d31349f58e938 phases=1 bus1=84053155316200.1.0 kv=0.22 conn=wye pmpp=4.00 kva=4.00 pf=1.0 irradiance=1.0 daily=Curva_Solar_Abril %cutin=0.1 %cutout=0.1
new PVSystem.GD_UGBT_a6175e46bedc5a19aee8edf67f7e1ea615d58cfc4122a3988f8073daf2ae6352 phases=1 bus1=82214105301847.1.0 kv=0.22 conn=wye pmpp=6.00 kva=6.00 pf=1.0 irradiance=1.0 daily=Curva_Solar_Abril %cutin=0.1 %cutout=0.1
new PVSystem.GD_UGBT_9fdea417a6b53404aa2356f126607955da59d1a4b0bbcd4556433080eb647aee phases=2 bus1=82204995288115.1.2.0 kv=0.38 conn=wye pmpp=4.00 kva=4.00 pf=1.0 irradiance=1.0 daily=Curva_Solar_Abril %cutin=0.1 %cutout=0.1
new PVSystem.GD_UGBT_e8c8e89517a5282a8a4d75cb80129c2591c2539afa559991cf1efb13515eb22f phases=3 bus1=88596615523228.1.2.3.0 kv=0.38 conn=wye pmpp=5.00 kva=5.00 pf=1.0 irradiance=1.0 daily=Curva_Solar_Abril %cutin=0.1 %cutout=0.1
new PVSystem.GD_UGBT_44a971622b4f17da844b7d6ba71325e5aa566bc4cffd0fdff54ef7b887852efa phases=3 bus1=87378205458987.1.2.3.0 kv=0.38 conn=wye pmpp=10.00 kva=10.00 pf=1.0 irradiance=1.0 daily=Curva_Solar_Abril %cutin=0.1 %cutout=0.1
new PVSystem.GD_UGBT_f0ff9767dc2cd60ac8106a5a61b77867aadef4f11db4d112e06f35bcca50247c phases=3 bus1=94233725620954.1.2.3.0 kv=0.38 conn=wye pmpp=6.00 kva=6.00 pf=1.0 irradiance=1.0 daily=Curva_Solar_Abril %cutin=0.1 %cutout=0.1
new PVSystem.GD_UGBT_22552d4f02b4858a66c1f189e605810e7f9173d6229ba5c035b216a6b770069e phases=3 bus1=83107145307863-365.1.2.3.0 kv=0.38 conn=wye pmpp=11.00 kva=11.00 pf=1.0 irradiance=1.0 daily=Curva_Solar_Abril %cutin=0.1 %cutout=0.1
new PVSystem.GD_UGBT_400ca759262978aaae4474b99745dcf198755e9316eae235e7f769a3109cf1d5 phases=1 bus1=82309105289269.2.0 kv=0.22 conn=wye pmpp=4.63 kva=4.63 pf=1.0 irradiance=1.0 daily=Curva_Solar_Abril %cutin=0.1 %cutout=0.1
new PVSystem.GD_UGBT_9f480969581c8c5483065a82932c94843bc46c1b7c1c11b6551c39e48159b192 phases=3 bus1=80503075271634-284.1.2.3.0 kv=0.38 conn=wye pmpp=6.00 kva=6.00 pf=1.0 irradiance=1.0 daily=Curva_Solar_Abril %cutin=0.1 %cutout=0.1
new PVSystem.GD_UGBT_e7d46cb03835e0198a241751d75b88117358a1fa73cc070a809ca39af7e28b62 phases=3 bus1=95190245720366.1.2.3.0 kv=0.38 conn=wye pmpp=8.00 kva=8.00 pf=1.0 irradiance=1.0 daily=Curva_Solar_Abril %cutin=0.1 %cutout=0.1
new PVSystem.GD_UGBT_9d4d2023bfa8e611d799e882b6ccbd5110e58437ae83912ed1eb012818ae620b phases=1 bus1=82360175289700.1.0 kv=0.22 conn=wye pmpp=10.00 kva=10.00 pf=1.0 irradiance=1.0 daily=Curva_Solar_Abril %cutin=0.1 %cutout=0.1
new PVSystem.GD_UGBT_9baafc81d518ca5c5f7bf9a4acf0bc2ef6bd5330c6965221a01747771a447d00 phases=3 bus1=80458575270872.1.2.3.0 kv=0.38 conn=wye pmpp=19.80 kva=19.80 pf=1.0 irradiance=1.0 daily=Curva_Solar_Abril %cutin=0.1 %cutout=0.1
new PVSystem.GD_UGBT_763b5712ee330639afb1cbdede0d97ecb2da20f23fc8a6008aa9292f9d883bd5 phases=1 bus1=82286705289218.1.0 kv=0.22 conn=wye pmpp=4.00 kva=4.00 pf=1.0 irradiance=1.0 daily=Curva_Solar_Abril %cutin=0.1 %cutout=0.1
new PVSystem.GD_UGBT_7a0a0167fef1e97c9258f1e5fa3bb09e97e6397a7a816521da0da123fd6b9fca phases=1 bus1=82305995289281.1.0 kv=0.22 conn=wye pmpp=4.50 kva=4.50 pf=1.0 irradiance=1.0 daily=Curva_Solar_Abril %cutin=0.1 %cutout=0.1
new PVSystem.GD_UGBT_853f7e63b3b2482e354ba6685cfe8868ef211759f8e588040ce406447c00f418 phases=3 bus1=95191205720354-983.1.2.3.0 kv=0.38 conn=wye pmpp=6.00 kva=6.00 pf=1.0 irradiance=1.0 daily=Curva_Solar_Abril %cutin=0.1 %cutout=0.1
new PVSystem.GD_UGBT_2195aa4b246db058cc9678c8fe49475c71e96379cc505a9179258a121384ad57 phases=3 bus1=96830545756020.1.2.3.0 kv=0.38 conn=wye pmpp=40.00 kva=40.00 pf=1.0 irradiance=1.0 daily=Curva_Solar_Abril %cutin=0.1 %cutout=0.1
new PVSystem.GD_UGBT_1d62255f92ec381283792ac0bd5d034dd2c4950b8dcc9697905a8679602fff8f phases=3 bus1=96876405754719.1.2.3.0 kv=0.38 conn=wye pmpp=10.50 kva=10.50 pf=1.0 irradiance=1.0 daily=Curva_Solar_Abril %cutin=0.1 %cutout=0.1
new PVSystem.GD_UGBT_073843195f1ddd5bcb0ce2cf0f6faceceb2a7c97fb2b7d5ea060f90676442dc1 phases=2 bus1=87642275289224.1.2.0 kv=0.38 conn=wye pmpp=12.21 kva=12.21 pf=1.0 irradiance=1.0 daily=Curva_Solar_Abril %cutin=0.1 %cutout=0.1
new PVSystem.GD_UGBT_41d040e950f37893ecfc19b59dcbdbb102836cfec2c8402afeb601013c89b500 phases=3 bus1=80503075271634-284.1.2.3.0 kv=0.38 conn=wye pmpp=6.00 kva=6.00 pf=1.0 irradiance=1.0 daily=Curva_Solar_Abril %cutin=0.1 %cutout=0.1
new PVSystem.GD_UGBT_22b642e4fc31969d9b3d1046de0f659cb1d240971e5a6df1066c79e16797723f phases=3 bus1=82327005289557.1.2.3.0 kv=0.38 conn=wye pmpp=7.50 kva=7.50 pf=1.0 irradiance=1.0 daily=Curva_Solar_Abril %cutin=0.1 %cutout=0.1
new PVSystem.GD_UGBT_2d052bab4f7ae50391a7f3b3c716405a524222774c27313e3fe5974726a95c80 phases=3 bus1=82289375289258.1.2.3.0 kv=0.38 conn=wye pmpp=24.00 kva=24.00 pf=1.0 irradiance=1.0 daily=Curva_Solar_Abril %cutin=0.1 %cutout=0.1
new PVSystem.GD_UGBT_4b68b9a5f0d86f61b295b9434a16ea59943b6533ddfbc53a940ac5816c263d4b phases=2 bus1=80559595272489.1.2.0 kv=0.38 conn=wye pmpp=14.00 kva=14.00 pf=1.0 irradiance=1.0 daily=Curva_Solar_Abril %cutin=0.1 %cutout=0.1
new PVSystem.GD_UGBT_d70f0719912512084683a3d5b5bfa3a0bc7cc634d17170e9d3dc704105d84a52 phases=3 bus1=81760755284519.1.2.3.0 kv=0.38 conn=wye pmpp=15.00 kva=15.00 pf=1.0 irradiance=1.0 daily=Curva_Solar_Abril %cutin=0.1 %cutout=0.1
new PVSystem.GD_UGBT_4cac7500c33ac4ea4af3265e28eebc87877223c4b4d5f36d72f42af37f77eb4c phases=3 bus1=80542425272222.1.2.3.0 kv=0.38 conn=wye pmpp=8.00 kva=8.00 pf=1.0 irradiance=1.0 daily=Curva_Solar_Abril %cutin=0.1 %cutout=0.1
new PVSystem.GD_UGBT_4f34d9819f0ce47ed26a449b441ced4069cd3bc1d9427605a32151444adc5108 phases=3 bus1=82321335289552.1.2.3.0 kv=0.38 conn=wye pmpp=16.00 kva=16.00 pf=1.0 irradiance=1.0 daily=Curva_Solar_Abril %cutin=0.1 %cutout=0.1
new PVSystem.GD_UGBT_d2e4aaa9d25d47bca4b99f9dfcbc3f8e91c3babe366e33e6eb967d2217274f95 phases=3 bus1=80438915270597.1.2.3.0 kv=0.38 conn=wye pmpp=9.00 kva=9.00 pf=1.0 irradiance=1.0 daily=Curva_Solar_Abril %cutin=0.1 %cutout=0.1
new PVSystem.GD_UGBT_cb3c0acb7dfb56ee5be4e5e89e8a958d8acf561ab4fbdda54964abddc2301ac2 phases=3 bus1=95190535720378.1.2.3.0 kv=0.38 conn=wye pmpp=8.00 kva=8.00 pf=1.0 irradiance=1.0 daily=Curva_Solar_Abril %cutin=0.1 %cutout=0.1
new PVSystem.GD_UGBT_77dd0c0a575ba0788871811404e17cbc5429a586e4890ea7ef460a23faea78a9 phases=3 bus1=80503075271634-284.1.2.3.0 kv=0.38 conn=wye pmpp=8.00 kva=8.00 pf=1.0 irradiance=1.0 daily=Curva_Solar_Abril %cutin=0.1 %cutout=0.1
new PVSystem.GD_UGBT_be9bee95c4894e4741d6ba7504e66ffc977a44f1aa61b266a210d9e583108e9a phases=3 bus1=80533375272016.1.2.3.0 kv=0.38 conn=wye pmpp=25.00 kva=25.00 pf=1.0 irradiance=1.0 daily=Curva_Solar_Abril %cutin=0.1 %cutout=0.1
new PVSystem.GD_UGBT_390fe2e26e68b07b419895e5d369e3ed7ac98235d6f7a117b960ef64e967c6fb phases=3 bus1=80482075271305.1.2.3.0 kv=0.38 conn=wye pmpp=36.00 kva=36.00 pf=1.0 irradiance=1.0 daily=Curva_Solar_Abril %cutin=0.1 %cutout=0.1
new PVSystem.GD_UGBT_683177e33e6b82939d8957585c0fb97c8dca84cdedb5d371e7b1a4754a055e6c phases=3 bus1=82377725289768-341.1.2.3.0 kv=0.38 conn=wye pmpp=18.00 kva=18.00 pf=1.0 irradiance=1.0 daily=Curva_Solar_Abril %cutin=0.1 %cutout=0.1
new PVSystem.GD_UGBT_4f855b70fc76d384a53d1b6af310855625fa1be88a1528cbed2775a48276ecce phases=3 bus1=80522495271879.1.2.3.0 kv=0.38 conn=wye pmpp=15.00 kva=15.00 pf=1.0 irradiance=1.0 daily=Curva_Solar_Abril %cutin=0.1 %cutout=0.1
new PVSystem.GD_UGBT_34431a2fdf3324ef5cf757a0186890861e6466f7762fed6bfa43ce33f7759826 phases=3 bus1=87422605459149-428.1.2.3.0 kv=0.38 conn=wye pmpp=7.50 kva=7.50 pf=1.0 irradiance=1.0 daily=Curva_Solar_Abril %cutin=0.1 %cutout=0.1
new PVSystem.GD_UGBT_d69b993c285bedf60d3a8264de05019639bfee4e6e6cae88fd9df60e5cf7dad4 phases=1 bus1=82303465289285.1.0 kv=0.22 conn=wye pmpp=7.50 kva=7.50 pf=1.0 irradiance=1.0 daily=Curva_Solar_Abril %cutin=0.1 %cutout=0.1
new PVSystem.GD_UGBT_a00fc24450ca757832787dba98a38e4c4625e2b17f9cb8155f8281c78174f34c phases=3 bus1=80517685271679.1.2.3.0 kv=0.38 conn=wye pmpp=4.80 kva=4.80 pf=1.0 irradiance=1.0 daily=Curva_Solar_Abril %cutin=0.1 %cutout=0.1
new PVSystem.GD_UGBT_7aa24f480c02c8ee9cfa78ccd01134c9848dddf8446e7a8b4a802b83b164d198 phases=2 bus1=82360935289709.2.3.0 kv=0.38 conn=wye pmpp=1.50 kva=1.50 pf=1.0 irradiance=1.0 daily=Curva_Solar_Abril %cutin=0.1 %cutout=0.1
new PVSystem.GD_UGBT_0b8753d3f1e2167a376e106f53573989b04fe8c224d34f046f2e175e8c6df5d1 phases=2 bus1=82360935289709.1.2.0 kv=0.38 conn=wye pmpp=3.85 kva=3.85 pf=1.0 irradiance=1.0 daily=Curva_Solar_Abril %cutin=0.1 %cutout=0.1
new PVSystem.GD_UGBT_666609d48d470fd2e3c1fce8c46a21ac733fe1d17d63f43b90a660c37d560b1d phases=3 bus1=81761385284513.1.2.3.0 kv=0.38 conn=wye pmpp=32.00 kva=32.00 pf=1.0 irradiance=1.0 daily=Curva_Solar_Abril %cutin=0.1 %cutout=0.1
new PVSystem.GD_UGBT_0c8c2eadd50f7af07fabcd9a6498deec642816a6308516b4dae68491bca21f74 phases=1 bus1=82326845289581.2.0 kv=0.22 conn=wye pmpp=2.00 kva=2.00 pf=1.0 irradiance=1.0 daily=Curva_Solar_Abril %cutin=0.1 %cutout=0.1
new PVSystem.GD_UGBT_e59158c5e232022b525545ac87651b524cb74eaf9ca248c9119b9f717b244ca3 phases=3 bus1=87377175459303.1.2.3.0 kv=0.38 conn=wye pmpp=8.20 kva=8.20 pf=1.0 irradiance=1.0 daily=Curva_Solar_Abril %cutin=0.1 %cutout=0.1
new PVSystem.GD_UGBT_9b92a4b888db79cfabe61d3f09a09d580d4e3d61e581c1d134de0d87c1346276 phases=1 bus1=82349325459863.3.0 kv=0.22 conn=wye pmpp=4.50 kva=4.50 pf=1.0 irradiance=1.0 daily=Curva_Solar_Abril %cutin=0.1 %cutout=0.1
new PVSystem.GD_UGBT_4e34772d977084c05416b0e3dbf3d8f3de85cb5cf9b5145ec4ed0fb2a04c7d99 phases=3 bus1=80474445271177.1.2.3.0 kv=0.38 conn=wye pmpp=10.00 kva=10.00 pf=1.0 irradiance=1.0 daily=Curva_Solar_Abril %cutin=0.1 %cutout=0.1
new PVSystem.GD_UGBT_aebffaa0407a264e793ecdabc5268f63bac79f4d30335c38ea340b7b3422ea7b phases=1 bus1=82381175289741.1.0 kv=0.22 conn=wye pmpp=4.15 kva=4.15 pf=1.0 irradiance=1.0 daily=Curva_Solar_Abril %cutin=0.1 %cutout=0.1
new PVSystem.GD_UGBT_be8e83f844e342f8e2b53129df06c6000c0ebc7a28120fee7714fbbcefaa3bd4 phases=3 bus1=87377365459303.1.2.3.0 kv=0.38 conn=wye pmpp=6.00 kva=6.00 pf=1.0 irradiance=1.0 daily=Curva_Solar_Abril %cutin=0.1 %cutout=0.1
new PVSystem.GD_UGBT_787d0dd1b737427cde98fb74ccfff3dab4895d9a520bc74466c126ef62513044 phases=1 bus1=82185015288246.1.0 kv=0.22 conn=wye pmpp=3.00 kva=3.00 pf=1.0 irradiance=1.0 daily=Curva_Solar_Abril %cutin=0.1 %cutout=0.1
new PVSystem.GD_UGBT_94904e1c38383b16759747d7d8160a42c800bb12c30964d310700c06ede726f7 phases=3 bus1=80516475271675.1.2.3.0 kv=0.38 conn=wye pmpp=8.00 kva=8.00 pf=1.0 irradiance=1.0 daily=Curva_Solar_Abril %cutin=0.1 %cutout=0.1
new PVSystem.GD_UGBT_f7ecc9f20c6525942a78c46ed57f1f450c26c20d121be9141665c2645c9438da phases=1 bus1=82381265289741.3.0 kv=0.22 conn=wye pmpp=3.00 kva=3.00 pf=1.0 irradiance=1.0 daily=Curva_Solar_Abril %cutin=0.1 %cutout=0.1
new PVSystem.GD_UGBT_32bac30ade169ae39cd13c99b44d2b163294cb489453fc2550c4dd43a650760b phases=3 bus1=82327695289481.1.2.3.0 kv=0.38 conn=wye pmpp=8.00 kva=8.00 pf=1.0 irradiance=1.0 daily=Curva_Solar_Abril %cutin=0.1 %cutout=0.1
new PVSystem.GD_UGBT_16728a00e3f25de6f8887e0a5aee30dbfd4f964e5c9393d603937d2bcfad8fbc phases=1 bus1=82185225288247.2.0 kv=0.22 conn=wye pmpp=2.70 kva=2.70 pf=1.0 irradiance=1.0 daily=Curva_Solar_Abril %cutin=0.1 %cutout=0.1
new PVSystem.GD_UGBT_42a4aa97a7fc0e54742f1382bde422fff07617944edfce6b4c37e187600ae059 phases=1 bus1=82186905288247.3.0 kv=0.22 conn=wye pmpp=6.00 kva=6.00 pf=1.0 irradiance=1.0 daily=Curva_Solar_Abril %cutin=0.1 %cutout=0.1
new PVSystem.GD_UGBT_5e6426004124d2cf1ba6987b9bf4120120bab6a62e1b5ae9639e68a345195229 phases=3 bus1=83111225612433-777.1.2.3.0 kv=0.38 conn=wye pmpp=12.00 kva=12.00 pf=1.0 irradiance=1.0 daily=Curva_Solar_Abril %cutin=0.1 %cutout=0.1
new PVSystem.GD_UGBT_e2f8405c78cdde93beac6c6a88cd552cd20979c2989d03989af7c443081a0d48 phases=3 bus1=87774925472280.1.2.3 kv=0.38 conn=wye pmpp=75.00 kva=75.00 pf=1.0 irradiance=1.0 daily=Curva_Solar_Abril %cutin=0.1 %cutout=0.1
new PVSystem.GD_UGBT_83cb925cd4e7c0f3484fbc0f97d6d92958dc22436e70921fd9a313e889d72f96 phases=3 bus1=87377885459275.1.2.3.0 kv=0.38 conn=wye pmpp=10.00 kva=10.00 pf=1.0 irradiance=1.0 daily=Curva_Solar_Abril %cutin=0.1 %cutout=0.1
new PVSystem.GD_UGBT_131823d8f0f98276afefd1a10f0e0abe5ec4a386d7ad7f27148da6b29c071e7e phases=3 bus1=80513835271676.1.2.3.0 kv=0.38 conn=wye pmpp=8.00 kva=8.00 pf=1.0 irradiance=1.0 daily=Curva_Solar_Abril %cutin=0.1 %cutout=0.1
new PVSystem.GD_UGBT_12d34edabff38becd96688303a0c9dacadbc04b293cbbf8ffdd7884586b05b59 phases=3 bus1=87422605459149-428.1.2.3.0 kv=0.38 conn=wye pmpp=8.00 kva=8.00 pf=1.0 irradiance=1.0 daily=Curva_Solar_Abril %cutin=0.1 %cutout=0.1
new PVSystem.GD_UGBT_5d58e2dc5bc35e2cab0c60e9570a0edbbb8f61bd928fb157369452b5376dca21 phases=3 bus1=80514265271676.1.2.3.0 kv=0.38 conn=wye pmpp=15.00 kva=15.00 pf=1.0 irradiance=1.0 daily=Curva_Solar_Abril %cutin=0.1 %cutout=0.1
new PVSystem.GD_UGBT_6fb6c4efae80f1364aaea807fa7736441752c72d094dd11a8b9a9d0e44649753 phases=3 bus1=80509565271650.1.2.3.0 kv=0.38 conn=wye pmpp=8.20 kva=8.20 pf=1.0 irradiance=1.0 daily=Curva_Solar_Abril %cutin=0.1 %cutout=0.1
new PVSystem.GD_UGBT_42d3e14aa434e2c87f0829cc6e285b9cdf5b0630bbedff01647a0f93a75bc0e4 phases=3 bus1=82315025289278.1.2.3.0 kv=0.38 conn=wye pmpp=25.00 kva=25.00 pf=1.0 irradiance=1.0 daily=Curva_Solar_Abril %cutin=0.1 %cutout=0.1
new PVSystem.GD_UGBT_e7523a74a6dc00bccf5f68e0ac29a1332b0f381539da020e3092a3a5f73f78f5 phases=3 bus1=85893675343291.1.2.3.0 kv=0.38 conn=wye pmpp=4.80 kva=4.80 pf=1.0 irradiance=1.0 daily=Curva_Solar_Abril %cutin=0.1 %cutout=0.1
new PVSystem.GD_UGBT_9ecb92b71b72ff6584a6df5944071f21b7c6a69b1e12f646eb785b341c79ba18 phases=2 bus1=87846005475121.1.2.0 kv=0.38 conn=wye pmpp=2.70 kva=2.70 pf=1.0 irradiance=1.0 daily=Curva_Solar_Abril %cutin=0.1 %cutout=0.1
new PVSystem.GD_UGBT_6cd3a68bc95ed924b2cf97923d21bd2132ddb60ecfe52c225df3900598d3cad7 phases=3 bus1=80459495270921.1.2.3.0 kv=0.38 conn=wye pmpp=36.00 kva=36.00 pf=1.0 irradiance=1.0 daily=Curva_Solar_Abril %cutin=0.1 %cutout=0.1
new PVSystem.GD_UGBT_409330b567fac0a2fa9cc99bfc32e19ff8f2dc5f924d7d4c970d441e3bde323b phases=3 bus1=87377505459303.1.2.3.0 kv=0.38 conn=wye pmpp=12.00 kva=12.00 pf=1.0 irradiance=1.0 daily=Curva_Solar_Abril %cutin=0.1 %cutout=0.1
new PVSystem.GD_UGBT_09d160bd99d8a5ccbb1e3d8ae4d80de279b311b4e553decb514e3d55ea473b1f phases=3 bus1=83075485307967.1.2.3.0 kv=0.38 conn=wye pmpp=1.60 kva=1.60 pf=1.0 irradiance=1.0 daily=Curva_Solar_Abril %cutin=0.1 %cutout=0.1
new PVSystem.GD_UGBT_c08065344c960b3dfd80c46543fdc6f0da83cf4d5c7487163ae770e0ac6257ba phases=1 bus1=82211185288281.1.0 kv=0.22 conn=wye pmpp=0.50 kva=0.50 pf=1.0 irradiance=1.0 daily=Curva_Solar_Abril %cutin=0.1 %cutout=0.1
new PVSystem.GD_UGBT_ad6ffd3b1cf65cac3c71fa32eebbf8078c2732db08d9f036dff13424c4230359 phases=3 bus1=80517075271667.1.2.3.0 kv=0.38 conn=wye pmpp=6.00 kva=6.00 pf=1.0 irradiance=1.0 daily=Curva_Solar_Abril %cutin=0.1 %cutout=0.1
new PVSystem.GD_UGBT_ccdc8be0eb5688eb242258387bb4bb53b217bc9035d658f6b4572da06c7e61db phases=3 bus1=87374945458987.1.2.3.0 kv=0.38 conn=wye pmpp=4.80 kva=4.80 pf=1.0 irradiance=1.0 daily=Curva_Solar_Abril %cutin=0.1 %cutout=0.1
new PVSystem.GD_UGBT_b8e831d96a98f22368fb94da85fa4150d9e9ae4317e7c45253f9cfb7583d5134 phases=1 bus1=82377175289794.2.0 kv=0.22 conn=wye pmpp=3.00 kva=3.00 pf=1.0 irradiance=1.0 daily=Curva_Solar_Abril %cutin=0.1 %cutout=0.1
new PVSystem.GD_UGBT_d876485eafcc92349644663e3528b6b3ca2ce4d7c7ba3d3622f12d9e249bf841 phases=1 bus1=82298565289257.3.0 kv=0.22 conn=wye pmpp=8.30 kva=8.30 pf=1.0 irradiance=1.0 daily=Curva_Solar_Abril %cutin=0.1 %cutout=0.1
new PVSystem.GD_UGBT_3b0d42941873366a366d6bf2820977251ccf5f81c187b25862cccc6aa09c40c1 phases=3 bus1=84051975316188.1.2.3.0 kv=0.38 conn=wye pmpp=4.95 kva=4.95 pf=1.0 irradiance=1.0 daily=Curva_Solar_Abril %cutin=0.1 %cutout=0.1
new PVSystem.GD_UGBT_6caab90152a3b05360d19e8c6acc7ec4d975dae0bb781a370d525982c2db0bc5 phases=3 bus1=80517495271671.1.2.3.0 kv=0.38 conn=wye pmpp=4.20 kva=4.20 pf=1.0 irradiance=1.0 daily=Curva_Solar_Abril %cutin=0.1 %cutout=0.1
new PVSystem.GD_UGBT_845183d00fe6f14349b17b4b98265de78732668d83273f6adba86fe06434e10b phases=3 bus1=80531495271992.1.2.3.0 kv=0.38 conn=wye pmpp=6.00 kva=6.00 pf=1.0 irradiance=1.0 daily=Curva_Solar_Abril %cutin=0.1 %cutout=0.1
new PVSystem.GD_UGBT_b35cae0c57b1f78c5c234de3dbb4d199592c032c3ddd6da9d815c6bf08aba4b1 phases=3 bus1=80517595271671.1.2.3.0 kv=0.38 conn=wye pmpp=8.00 kva=8.00 pf=1.0 irradiance=1.0 daily=Curva_Solar_Abril %cutin=0.1 %cutout=0.1
new PVSystem.GD_UGBT_234842e4d5e78c0d119f448bcbe93aa2a7e3aebbf397266888042c2cd9d65c82 phases=3 bus1=80516205271678.1.2.3.0 kv=0.38 conn=wye pmpp=4.00 kva=4.00 pf=1.0 irradiance=1.0 daily=Curva_Solar_Abril %cutin=0.1 %cutout=0.1
new PVSystem.GD_UGBT_96c03a114fff33ffe27793fe6de9bc276170b6194f42eee058931385b7f508c3 phases=1 bus1=82382065289784.2.0 kv=0.22 conn=wye pmpp=1.84 kva=1.84 pf=1.0 irradiance=1.0 daily=Curva_Solar_Abril %cutin=0.1 %cutout=0.1
new PVSystem.GD_UGBT_d6c8d11748a1bb975cf25e1bcfc308b7c5a4ab81f0f60b2334a0536ed0a4ffc6 phases=1 bus1=82371345289778.2.0 kv=0.22 conn=wye pmpp=8.00 kva=8.00 pf=1.0 irradiance=1.0 daily=Curva_Solar_Abril %cutin=0.1 %cutout=0.1
new PVSystem.GD_UGBT_b34ccba4c6ca7f70b1a84382c3624d1b105b53bfca51f275149e4b8bbd91b84a phases=3 bus1=80514295271677.1.2.3.0 kv=0.38 conn=wye pmpp=5.55 kva=5.55 pf=1.0 irradiance=1.0 daily=Curva_Solar_Abril %cutin=0.1 %cutout=0.1
new PVSystem.GD_UGBT_8b9f898f6f410267b053a57009f0b2966fce2062afb60131e05a1c7261f4771c phases=1 bus1=82212075288259.1.0 kv=0.22 conn=wye pmpp=2.77 kva=2.77 pf=1.0 irradiance=1.0 daily=Curva_Solar_Abril %cutin=0.1 %cutout=0.1
new PVSystem.GD_UGBT_ea946198e469d0b22c2539ccc26a41662ba0a93670530cfea67ad2c962ee7317 phases=1 bus1=82185605288119.3.0 kv=0.22 conn=wye pmpp=4.99 kva=4.99 pf=1.0 irradiance=1.0 daily=Curva_Solar_Abril %cutin=0.1 %cutout=0.1
new PVSystem.GD_UGBT_4805e31df481f831f1d9a8d4f2de1e435845a4afb1b33c3189bf5a5393e8678b phases=3 bus1=80546635272237.1.2.3.0 kv=0.38 conn=wye pmpp=8.00 kva=8.00 pf=1.0 irradiance=1.0 daily=Curva_Solar_Abril %cutin=0.1 %cutout=0.1
new PVSystem.GD_UGBT_3dd376a049f1199370723f87d55987e27990f7d69fe2d8b3ee908a10ef35b32f phases=2 bus1=80482815271307.2.3.0 kv=0.38 conn=wye pmpp=6.05 kva=6.05 pf=1.0 irradiance=1.0 daily=Curva_Solar_Abril %cutin=0.1 %cutout=0.1
new PVSystem.GD_UGBT_e313a20ca799666d8c39cd4e9610964f229dff45f5c17a7ef017d467911c9eec phases=3 bus1=82322675289542.1.2.3.0 kv=0.38 conn=wye pmpp=4.00 kva=4.00 pf=1.0 irradiance=1.0 daily=Curva_Solar_Abril %cutin=0.1 %cutout=0.1
new PVSystem.GD_UGBT_3b9e65348754f70d1a540e8dee1305ceca363d512fc12092fae01a1b4b5a294b phases=3 bus1=80465395270931.1.2.3.0 kv=0.38 conn=wye pmpp=15.00 kva=15.00 pf=1.0 irradiance=1.0 daily=Curva_Solar_Abril %cutin=0.1 %cutout=0.1
new PVSystem.GD_UGBT_b71b6fd976520fc5433ba761ed1eadc0e1b40c13f5dd947ae5857cc280db9c85 phases=3 bus1=82578795291645.1.2.3.0 kv=0.38 conn=wye pmpp=6.00 kva=6.00 pf=1.0 irradiance=1.0 daily=Curva_Solar_Abril %cutin=0.1 %cutout=0.1
new PVSystem.GD_UGBT_8e957dba5b21cbca0bed25584feddd110f8d98b45df6f786743ab2125a053a09 phases=3 bus1=87432275460386-430.1.2.3.0 kv=0.38 conn=wye pmpp=8.10 kva=8.10 pf=1.0 irradiance=1.0 daily=Curva_Solar_Abril %cutin=0.1 %cutout=0.1
new PVSystem.GD_UGBT_b89ff76585ab11736e75ab8f598ea0311a72186896d9a834c9d84ef1a559b488 phases=3 bus1=80451385270902.1.2.3.0 kv=0.38 conn=wye pmpp=6.00 kva=6.00 pf=1.0 irradiance=1.0 daily=Curva_Solar_Abril %cutin=0.1 %cutout=0.1
new PVSystem.GD_UGBT_c1c127aeec7dbb8b991141ff901398a8b8e47b2f6cad3a77f601af88c3f59e94 phases=1 bus1=83545945307895.1.0 kv=0.22 conn=wye pmpp=4.00 kva=4.00 pf=1.0 irradiance=1.0 daily=Curva_Solar_Abril %cutin=0.1 %cutout=0.1
new PVSystem.GD_UGBT_d0d94919e18b39296df6bbe2de1e14c010a108d78eae5088d025491a17411672 phases=3 bus1=88596575502053.1.2.3.0 kv=0.38 conn=wye pmpp=10.00 kva=10.00 pf=1.0 irradiance=1.0 daily=Curva_Solar_Abril %cutin=0.1 %cutout=0.1
new PVSystem.GD_UGBT_655428df9e5a849cc80b9d899e671a277b96748a85a6f80538c0e9aba50536bf phases=3 bus1=81758275284337.1.2.3.0 kv=0.38 conn=wye pmpp=28.80 kva=28.80 pf=1.0 irradiance=1.0 daily=Curva_Solar_Abril %cutin=0.1 %cutout=0.1
new PVSystem.GD_UGBT_b37f444580a3976b4dd246d3d903fb9a36343fee22dc2a1fe0cf4c1b7a46097b phases=3 bus1=82357255289689.1.2.3.0 kv=0.38 conn=wye pmpp=3.88 kva=3.88 pf=1.0 irradiance=1.0 daily=Curva_Solar_Abril %cutin=0.1 %cutout=0.1
new PVSystem.GD_UGBT_8d7be856300200a29822fafbad02372d9efe9f1551c5d501ba5b26ed75201003 phases=2 bus1=88437075496366.2.3.0 kv=0.38 conn=wye pmpp=3.00 kva=3.00 pf=1.0 irradiance=1.0 daily=Curva_Solar_Abril %cutin=0.1 %cutout=0.1
new PVSystem.GD_UGBT_92f1ecb7aec88e3756346c662e80a998edbc0d0429ad022467944d5f2817049a phases=3 bus1=82208095288279.1.2.3.0 kv=0.38 conn=wye pmpp=19.74 kva=19.74 pf=1.0 irradiance=1.0 daily=Curva_Solar_Abril %cutin=0.1 %cutout=0.1
new PVSystem.GD_UGBT_3ec95158e53e749a29c4e0ac27da852d7fd7178d4e8a4f978eeb3ca2fa719767 phases=1 bus1=82331965289563.1.0 kv=0.22 conn=wye pmpp=3.00 kva=3.00 pf=1.0 irradiance=1.0 daily=Curva_Solar_Abril %cutin=0.1 %cutout=0.1
new PVSystem.GD_UGBT_1539704e7f7501618ee66fddee6368787f00e321424c15264602a4068c1d83e2 phases=1 bus1=82333575289555.2.0 kv=0.22 conn=wye pmpp=5.00 kva=5.00 pf=1.0 irradiance=1.0 daily=Curva_Solar_Abril %cutin=0.1 %cutout=0.1
new PVSystem.GD_UGBT_e8b8d093bad1d5f5d6096d1499f76ba9ef99c2a9720e4020bf4882b32374ad70 phases=2 bus1=82361705289787.3.1.0 kv=0.38 conn=wye pmpp=4.95 kva=4.95 pf=1.0 irradiance=1.0 daily=Curva_Solar_Abril %cutin=0.1 %cutout=0.1
new PVSystem.GD_UGBT_41a153803ded695cb162c2d8202f9397ee03eabb3c126aa3881cd5686d0d9a4b phases=3 bus1=82317195289331.1.2.3.0 kv=0.38 conn=wye pmpp=15.00 kva=15.00 pf=1.0 irradiance=1.0 daily=Curva_Solar_Abril %cutin=0.1 %cutout=0.1
new PVSystem.GD_UGBT_df9942deae13c1b53a2a5dc00155ddec320ecc79609a67c5d51c25c1057d3c36 phases=2 bus1=80519615271673.1.2.0 kv=0.38 conn=wye pmpp=2.00 kva=2.00 pf=1.0 irradiance=1.0 daily=Curva_Solar_Abril %cutin=0.1 %cutout=0.1
new PVSystem.GD_UGBT_334ce82fdc23f0869c7b73a076295a3d42480e359eea212dfefbc9a8290a04be phases=1 bus1=82376465289794.2.0 kv=0.22 conn=wye pmpp=3.00 kva=3.00 pf=1.0 irradiance=1.0 daily=Curva_Solar_Abril %cutin=0.1 %cutout=0.1
new PVSystem.GD_UGBT_38ea7567eaee4d977e3fdaef191129ea704e8d12e85a3d3a8fc8d391ca277232 phases=1 bus1=81759545284515.1.0 kv=0.22 conn=wye pmpp=5.00 kva=5.00 pf=1.0 irradiance=1.0 daily=Curva_Solar_Abril %cutin=0.1 %cutout=0.1
new PVSystem.GD_UGBT_607ad8d9e29eb042974d8eec3dbf56c34556444172c81de3a0ed41a878d93cb7 phases=3 bus1=83096235307934.1.2.3.0 kv=0.38 conn=wye pmpp=3.60 kva=3.60 pf=1.0 irradiance=1.0 daily=Curva_Solar_Abril %cutin=0.1 %cutout=0.1
new PVSystem.GD_UGBT_66247d6d3489181ef9214644f4373e6ce82c40114b4f475f03edaf53f27a9040 phases=2 bus1=80450885562721.2.3.0 kv=0.38 conn=wye pmpp=0.55 kva=0.55 pf=1.0 irradiance=1.0 daily=Curva_Solar_Abril %cutin=0.1 %cutout=0.1
new PVSystem.GD_UGBT_f0bcb06e60291aa921849690ffde1fd22f6b26e2c38f29cb26190f2fcbae1d95 phases=3 bus1=82383725289737.1.2.3.0 kv=0.38 conn=wye pmpp=5.00 kva=5.00 pf=1.0 irradiance=1.0 daily=Curva_Solar_Abril %cutin=0.1 %cutout=0.1
new PVSystem.GD_UGBT_7e7b6ab5e2858cbe7c999b0b7ac21554d4896a100b5503ff0479e5bcea82b5b0 phases=1 bus1=82285265289223.1.0 kv=0.22 conn=wye pmpp=0.46 kva=0.46 pf=1.0 irradiance=1.0 daily=Curva_Solar_Abril %cutin=0.1 %cutout=0.1
new PVSystem.GD_UGBT_ad98bf61b65d0644c5b03af0087f62a48449f8155baf9541d2e09b21bf645359 phases=3 bus1=80488825271494.1.2.3.0 kv=0.38 conn=wye pmpp=3.85 kva=3.85 pf=1.0 irradiance=1.0 daily=Curva_Solar_Abril %cutin=0.1 %cutout=0.1
new PVSystem.GD_UGBT_eed741fd0b06e007fd28bafe858ce3a183d3c709b728dfde258be4ce5db01d8f phases=1 bus1=82201835288266.2.0 kv=0.22 conn=wye pmpp=4.00 kva=4.00 pf=1.0 irradiance=1.0 daily=Curva_Solar_Abril %cutin=0.1 %cutout=0.1
new PVSystem.GD_UGBT_0a8a60aff369de2d2e30b5d2bd4fef65b9098f2ddc0dc7c59ccb76209c371963 phases=3 bus1=82362815289712.1.2.3.0 kv=0.38 conn=wye pmpp=36.00 kva=36.00 pf=1.0 irradiance=1.0 daily=Curva_Solar_Abril %cutin=0.1 %cutout=0.1
new PVSystem.GD_UGBT_4a68979bec96e9568a0a7aef6af99324090cb69dc7a79b27337853e10db9e6ef phases=1 bus1=82203185340235.3.0 kv=0.22 conn=wye pmpp=2.00 kva=2.00 pf=1.0 irradiance=1.0 daily=Curva_Solar_Abril %cutin=0.1 %cutout=0.1
new PVSystem.GD_UGBT_25428c986ab32a6d99910da320c1798f58584d1ece53e4fa87a91c26cfb22443 phases=3 bus1=83081655307956-369.1.2.3.0 kv=0.38 conn=wye pmpp=9.60 kva=9.60 pf=1.0 irradiance=1.0 daily=Curva_Solar_Abril %cutin=0.1 %cutout=0.1
new PVSystem.GD_UGBT_5b3e96bf7d5c4800f26f5eb7d0ae9e8ee48f77d4e4d97dd8b25acc12378cabc6 phases=1 bus1=82350895289533.2.0 kv=0.22 conn=wye pmpp=4.00 kva=4.00 pf=1.0 irradiance=1.0 daily=Curva_Solar_Abril %cutin=0.1 %cutout=0.1
new PVSystem.GD_UGBT_afd287c85c1a2fb3a97641e5295fde680ced34f2f51d640f8cac5896a98e38f0 phases=3 bus1=87428715459372-429.1.2.3.0 kv=0.38 conn=wye pmpp=8.50 kva=8.50 pf=1.0 irradiance=1.0 daily=Curva_Solar_Abril %cutin=0.1 %cutout=0.1
new PVSystem.GD_UGBT_8ec8a92b157eddd8f048b99a7295b775749bf948a90d06bd16312be32ebc8576 phases=3 bus1=82315495289278.1.2.3.0 kv=0.38 conn=wye pmpp=19.80 kva=19.80 pf=1.0 irradiance=1.0 daily=Curva_Solar_Abril %cutin=0.1 %cutout=0.1
new PVSystem.GD_UGBT_404a134f954c89693ce9805b1c30cb1f857c8aff068bb71361aa6844b32c02b2 phases=1 bus1=82208475288251.2.0 kv=0.22 conn=wye pmpp=9.35 kva=9.35 pf=1.0 irradiance=1.0 daily=Curva_Solar_Abril %cutin=0.1 %cutout=0.1
new PVSystem.GD_UGBT_f22fc12947bb5fca00a35d132b6d9c136995f3740ac9b2e5e0d351069d60dfa9 phases=3 bus1=89250045522592.1.2.3.0 kv=0.38 conn=wye pmpp=15.00 kva=15.00 pf=1.0 irradiance=1.0 daily=Curva_Solar_Abril %cutin=0.1 %cutout=0.1
new PVSystem.GD_UGBT_602ff3d080dbafa25f60958cd60a830471ad8946651efa516371bee088b342f2 phases=3 bus1=89250075522592.1.2.3.0 kv=0.38 conn=wye pmpp=10.00 kva=10.00 pf=1.0 irradiance=1.0 daily=Curva_Solar_Abril %cutin=0.1 %cutout=0.1
new PVSystem.GD_UGBT_39fe09182077fab80770b74b449dae58d83eace540dbea407eea0b573c858936 phases=1 bus1=82307205289275.1.0 kv=0.22 conn=wye pmpp=4.28 kva=4.28 pf=1.0 irradiance=1.0 daily=Curva_Solar_Abril %cutin=0.1 %cutout=0.1
...
